@<TRIPOS>MOLECULE
arsenous_acid
   7    6    1    0    0
SMALL
USER_CHARGES
arsenite As(OH)3 trigonal pyramidal; As-O 1.78A; O-As-O ~94deg
@<TRIPOS>ATOM
      1 As1         0.0000    0.0000    0.0000 As        1 LIG       0.4500
      2 O1          1.3010    0.0000   -1.2140 O.3       1 LIG      -0.5000
      3 O2         -0.6505    1.1267   -1.2140 O.3       1 LIG      -0.5000
      4 O3         -0.6505   -1.1267   -1.2140 O.3       1 LIG      -0.5000
      5 H1          2.0023    0.0000   -1.8690 H         1 LIG       0.3500
      6 H2         -1.0011    1.7335   -1.8690 H         1 LIG       0.3500
      7 H3         -1.0011   -1.7335   -1.8690 H         1 LIG       0.3500
@<TRIPOS>BOND
     1    1    2 1
     2    1    3 1
     3    1    4 1
     4    2    5 1
     5    3    6 1
     6    4    7 1
@<TRIPOS>SUBSTRUCTURE
     1 LIG         1 RESIDUE           0 ****  ****    0 ROOT
